[General]
network = simulations.ned.CampusNetworkAggregated
sim-time-limit = 1s

ned-path = ../ned